# generated using pymatgen
data_CsCoO2
_symmetry_space_group_name_H-M   'P 1'
_cell_length_a   2.84289896
_cell_length_b   2.84289896
_cell_length_c   9.85287957
_cell_angle_alpha   81.70514079
_cell_angle_beta   81.70514079
_cell_angle_gamma   60.00000000
_symmetry_Int_Tables_number   1
_chemical_formula_structural   CsCoO2
_chemical_formula_sum   'Cs1 Co1 O2'
_cell_volume   67.99945881
_cell_formula_units_Z   1
loop_
 _symmetry_equiv_pos_site_id
 _symmetry_equiv_pos_as_xyz
  1  'x, y, z'
loop_
 _atom_site_type_symbol
 _atom_site_label
 _atom_site_symmetry_multiplicity
 _atom_site_fract_x
 _atom_site_fract_y
 _atom_site_fract_z
 _atom_site_occupancy
  Co  Co0  1  0.58577625  0.58577625  0.24267125  1.0
  Cs  Cs1  1  0.08577620  0.08577620  -0.25732859  1.0
  O  O2  1  0.28783422  0.28783422  0.13649733  1.0
  O  O3  1  0.88371817  0.88371817  0.34884550  1.0
