# generated using pymatgen
data_NaCoO2
_symmetry_space_group_name_H-M   'P 1'
_cell_length_a   2.84289896
_cell_length_b   2.84289896
_cell_length_c   6.91288687
_cell_angle_alpha   78.13402072
_cell_angle_beta   78.13402072
_cell_angle_gamma   60.00000000
_symmetry_Int_Tables_number   1
_chemical_formula_structural   NaCoO2
_chemical_formula_sum   'Na1 Co1 O2'
_cell_volume   47.00161332
_cell_formula_units_Z   1
loop_
 _symmetry_equiv_pos_site_id
 _symmetry_equiv_pos_as_xyz
  1  'x, y, z'
loop_
 _atom_site_type_symbol
 _atom_site_label
 _atom_site_symmetry_multiplicity
 _atom_site_fract_x
 _atom_site_fract_y
 _atom_site_fract_z
 _atom_site_occupancy
  Co  Co0  1  0.54963867  0.54963867  0.35108399  1.0
  Na  Na1  1  0.04963859  0.04963859  -0.14891578  1.0
  O  O2  1  0.26750762  0.26750762  0.19747715  1.0
  O  O3  1  0.83176957  0.83176957  0.50469129  1.0
