# generated using pymatgen
data_LiCoO2
_symmetry_space_group_name_H-M   'P 1'
_cell_length_a   2.84289896
_cell_length_b   2.84289896
_cell_length_c   14.80646099
_cell_angle_alpha   84.49100771
_cell_angle_beta   84.49100771
_cell_angle_gamma   60.00000000
_symmetry_Int_Tables_number   1
_chemical_formula_structural   LiCoO2
_chemical_formula_sum   'Li1 Co1 O2'
_cell_volume   102.99586795
_cell_formula_units_Z   1
loop_
 _symmetry_equiv_pos_site_id
 _symmetry_equiv_pos_as_xyz
  1  'x, y, z'
loop_
 _atom_site_type_symbol
 _atom_site_label
 _atom_site_symmetry_multiplicity
 _atom_site_fract_x
 _atom_site_fract_y
 _atom_site_fract_z
 _atom_site_occupancy
  Co  Co0  1  0.61326157  0.61326157  0.16021530  1.0
  Li  Li1  1  0.11326153  0.11326153  -0.33978459  1.0
  O  O2  1  0.30329412  0.30329412  0.09011764  1.0
  O  O3  1  0.92322894  0.92322894  0.23031317  1.0
